results/2026-03-19/bilevel_comparisons_single_period/solution_bus_motivation_c_equality_min.csv
bus_id,vm_avg,z_voltage
1,1.0205868269795386,1.0
2,1.020586837672876,1.0
3,0.0,0.0
4,1.01967086648313,1.0
5,0.0,0.0
6,1.03,1.0
7,1.0217654298273322,1.0
8,1.0228384340206838,1.0
9,1.0228384340206838,1.0
10,0.0,0.0
11,1.0209296078665806,1.0
12,0.0,0.0
13,1.0220491801089107,1.0
14,1.0217654298273322,1.0
15,0.0,0.0
16,0.0,0.0
17,1.0217654298273322,1.0
18,1.0205868269795386,1.0
19,1.0228384340206838,1.0
20,0.0,0.0
